&HEAD CHID = 'test1' /
&MESH IJK = 3, 3, 3, XB = -0.15, 0.15, -0.15, 0.15, 0.0, 0.3 /
&TIME T_END=3600., WALL_INCREMENT = 1., DT = 0.05 /
&MISC SOLID_PHASE_ONLY=.TRUE. /
&SPEC ID = 'METHANE' /
&MATL ID = 'MOISTURE', N_REACTIONS = 1, A(1) = 6.14, E(1) = 23500.0, EMISSIVITY = 0.9, DENSITY = 1000, SPEC_ID = 'METHANE', NU_SPEC = 1.0, CONDUCTIVITY = 0.2, SPECIFIC_HEAT = 1.0  /
&MATL ID = 'LB', N_REACTIONS = 1, A(1) = 195510562.8878093, E(1) = 118303.49716872007, EMISSIVITY = 0.9, DENSITY = 520, SPEC_ID = 'METHANE', NU_SPEC = 0.05389911074029574, NU_MATL = 0.9461008892597043, MATL_ID = 'LB_int', CONDUCTIVITY = 0.2, SPECIFIC_HEAT = 1.0  /
&MATL ID = 'LB_int', N_REACTIONS = 1, A(1) = 47566625320.27575, E(1) = 169629.4221523439, EMISSIVITY = 0.9, DENSITY = 491.9724624150462, SPEC_ID = 'METHANE', NU_SPEC = 0.6137692964534549, NU_MATL = 0.3862307035465451, MATL_ID = 'LB_char1', CONDUCTIVITY = 0.2, SPECIFIC_HEAT = 1.0  /
&MATL ID = 'LB_char1', N_REACTIONS = 1, A(1) = 1.9530154040273928, E(1) = 19066.337038197096, EMISSIVITY = 0.9, DENSITY = 190.0148702840895, SPEC_ID = 'METHANE', NU_SPEC = 0.40215776655002533, NU_MATL = 0.5978422334499747, MATL_ID = 'LB_char2', CONDUCTIVITY = 0.2, SPECIFIC_HEAT = 1.0  /
&MATL ID = 'LB_char2', EMISSIVITY = 0.9, DENSITY = 113.5989144393473, CONDUCTIVITY = 0.2, SPECIFIC_HEAT = 1.0  /

&SURF ID = 'SAMPLE', TGA_ANALYSIS = .TRUE., TGA_HEATING_RATE = (60,), MATL_ID(1,1) = 'LB', MATL_ID(1,2) = 'MOISTURE', MATL_MASS_FRACTION(1,:) = 0.98,0.02, THICKNESS = 0.001, CELL_SIZE_FACTOR = 0.1, STRETCH_FACTOR(1) = 1. /
&VENT XB = -0.05, 0.05, -0.05, 0.05, 0.0, 0.0, SURF_ID = 'SAMPLE' /
&DUMP DT_DEVC = 1, SUPPRESS_DIAGNOSTICS =  /
&DEVC XYZ = 0.0, 0.0, 0.0, IOR = 3, QUANTITY = 'WALL TEMPERATURE', ID = 'temp' /
&DEVC XYZ = 0.0, 0.0, 0.0, IOR = 3, QUANTITY = 'BACK WALL TEMPERATURE', ID = 'back_temp' /
&DEVC XYZ = 0.0, 0.0, 0.0, IOR = 3, QUANTITY = 'MASS FLUX', SPEC_ID = 'METHANE', ID='MF' /
&DEVC XYZ = 0.0, 0.0, 0.0, IOR = 3, QUANTITY = 'WALL THICKNESS', ID = 'thick' /

&TAIL /
