&HEAD CHID = 'test1' /
&MESH IJK = 3, 3, 3, XB = -0.15, 0.15, -0.15, 0.15, 0.0, 0.3 /
&TIME T_END=3600., WALL_INCREMENT = 1., DT = 0.05 /
&MISC SOLID_PHASE_ONLY=.TRUE. /
&SPEC ID = 'METHANE' /
&MATL ID = 'PMMA', N_REACTIONS = 1, A(1) = 5.0118723362727144e+16, E(1) = 163680.0, EMISSIVITY = 0.9, DENSITY = 1160, SPEC_ID = 'METHANE', NU_SPEC = 0.020000000000000018, NU_MATL = 0.98, MATL_ID = 'PMMA_int', CONDUCTIVITY = 0.2, SPECIFIC_HEAT = 1.0  /
&MATL ID = 'PMMA_int', N_REACTIONS = 1, A(1) = 125892541179.41661, E(1) = 164160.0, EMISSIVITY = 0.9, DENSITY = 1160, SPEC_ID = 'METHANE', NU_SPEC = 0.998, NU_MATL = 0.002, MATL_ID = 'PMMA_char', CONDUCTIVITY = 0.2, SPECIFIC_HEAT = 1.0  /
&MATL ID = 'PMMA_char', EMISSIVITY = 0.9, DENSITY = 1160, CONDUCTIVITY = 0.2, SPECIFIC_HEAT = 1.0  /

&SURF ID = 'SAMPLE', TGA_ANALYSIS = .TRUE., TGA_HEATING_RATE = 10, MATL_ID(1,1) = 'PMMA', MATL_MASS_FRACTION(1,:) = 1.0, THICKNESS = 0.001, CELL_SIZE_FACTOR = 0.1, STRETCH_FACTOR(1) = 1. /
&VENT XB = -0.05, 0.05, -0.05, 0.05, 0.0, 0.0, SURF_ID = 'SAMPLE' /
&DUMP DT_DEVC = 1, SUPPRESS_DIAGNOSTICS = .TRUE. /
&DEVC XYZ = 0.0, 0.0, 0.0, IOR = 3, QUANTITY = 'WALL TEMPERATURE', ID = 'temp' /
&DEVC XYZ = 0.0, 0.0, 0.0, IOR = 3, QUANTITY = 'BACK WALL TEMPERATURE', ID = 'back_temp' /
&DEVC XYZ = 0.0, 0.0, 0.0, IOR = 3, QUANTITY = 'MASS FLUX', SPEC_ID = 'METHANE', ID='MF' /
&DEVC XYZ = 0.0, 0.0, 0.0, IOR = 3, QUANTITY = 'WALL THICKNESS', ID = 'thick' /

&TAIL /
